
**** 10/25/17 16:15:20 ******* PSpice Lite (March 2016) ******* ID# 10813 ****

 *inverting amp


 ****     CIRCUIT DESCRIPTION


******************************************************************************



r1 0 2 1k
rf 2 6 1k
x 1 2 6 opamp1
*trans vin 1 0 sin(0 0.1 1k)
*ac vin 1 0 ac 0.1
*dc
 vin 1 0 dc 0
.lib C:\Users\LAB\Desktop\Srijan_ece3_2017\opamp1.lib
*.tran .9m 3m
*.ac dec 100 1 1000meg
.dc vin -12 12 0.01
.probe
.end


          JOB CONCLUDED

**** 10/25/17 16:15:20 ******* PSpice Lite (March 2016) ******* ID# 10813 ****

 *inverting amp


 ****     JOB STATISTICS SUMMARY


******************************************************************************



  Total job time (using Solver 1)   =         .03
