
**** 09/27/17 16:45:03 ******* PSpice Lite (March 2016) ******* ID# 10813 ****

 *inverting amp


 ****     CIRCUIT DESCRIPTION


******************************************************************************



r1 0 2 1k
rf 2 6 1k
x 1 2 7 4 6 ua741
vin 1 0 sin(0 0.1 1k)
vp 7 0 dc 12
vn 0 4 dc 12
.lib C:\Cadence\SPB_17.2\tools\pspice\library\opamp.lib
.tran .9m 3m
.probe
.end

**** 09/27/17 16:45:03 ******* PSpice Lite (March 2016) ******* ID# 10813 ****

 *inverting amp


 ****     Diode MODEL PARAMETERS


******************************************************************************




               x.dx            x.dy            
          IS  800.000000E-18  800.000000E-18 
          RS    1               1.000000E-03 
         CJO                   10.000000E-12 


**** 09/27/17 16:45:03 ******* PSpice Lite (March 2016) ******* ID# 10813 ****

 *inverting amp


 ****     BJT MODEL PARAMETERS


******************************************************************************




               x.qx            
               NPN             
       LEVEL    1            
          IS  800.000000E-18 
          BF   93.75         
          NF    1            
          BR    1            
          NR    1            
         ISS    0            
          RE    0            
          RC    0            
         CJE    0            
         VJE     .75         
         CJC    0            
         VJC     .75         
         MJC     .33         
        XCJC    1            
         CJS    0            
         VJS     .75         
          KF    0            
          AF    1            
          CN    2.42         
           D     .87         


**** 09/27/17 16:45:03 ******* PSpice Lite (March 2016) ******* ID# 10813 ****

 *inverting amp


 ****     INITIAL TRANSIENT SOLUTION       TEMPERATURE =   27.000 DEG C


******************************************************************************



 NODE   VOLTAGE     NODE   VOLTAGE     NODE   VOLTAGE     NODE   VOLTAGE


(    1)    0.0000  (    2) 19.25E-06  (    4)  -12.0000  (    6) 118.3E-06      

(    7)   12.0000  (  x.6)-12.91E-09  (  x.7) 123.2E-06  (  x.8) 123.2E-06      

(  x.9)    0.0000  ( x.10)    -.6077  ( x.11)   11.9600  ( x.12)   11.9600      

( x.13)    -.5938  ( x.14)    -.5938  ( x.53)   11.0000  ( x.54)  -11.0000      

( x.90) 99.01E-06  ( x.91)   40.0000  ( x.92)  -40.0000  ( x.99)    0.0000  




    VOLTAGE SOURCE CURRENTS
    NAME         CURRENT

    vin         -7.973E-08
    vp          -1.337E-03
    vn          -1.337E-03
    x.vb        -1.291E-13
    x.vc         1.100E-11
    x.ve         1.251E-11
    x.vlim       9.901E-08
    x.vlp       -4.000E-11
    x.vln       -4.000E-11

    TOTAL POWER DISSIPATION   3.21E-02  WATTS



          JOB CONCLUDED

**** 09/27/17 16:45:03 ******* PSpice Lite (March 2016) ******* ID# 10813 ****

 *inverting amp


 ****     JOB STATISTICS SUMMARY


******************************************************************************



  Total job time (using Solver 1)   =         .02
