
**** 10/11/17 16:12:59 ******* PSpice Lite (March 2016) ******* ID# 10813 ****

 *differential amplifier


 ****     CIRCUIT DESCRIPTION


******************************************************************************



 rc1 6 4 1k
 rc2 6 5 1k
 rd 10 0 1
 rb 8 0 4.3k
 .lib "nom.lib"
 q1 4 1 2 q2n2222
 q2 5 3 2 q2n2222
 q3 8 8 9 q2n2222
 q4 2 8 9 q2n2222
 vcc 6 0 dc 5V
 vee 0 9 dc 5V
 e1 1 7 10 0 0.5
 e2 7 3 10 0 0.5
 Vcm 7 0 ac 1V
 vd 10 0 ac 1V
*vd 10 0 dc 5V
*vd 10 0 sin(0 0.1V 1kHz)
*.dc vd -5V 5V .1V
*.tran 1u 10m
 .ac dec 50 1Hz 10megHz
 .probe
 .end

**** 10/11/17 16:12:59 ******* PSpice Lite (March 2016) ******* ID# 10813 ****

 *differential amplifier


 ****     BJT MODEL PARAMETERS


******************************************************************************




               q2n2222         
               NPN             
       LEVEL    1            
          IS   14.340000E-15 
          BF  255.9          
          NF    1            
         VAF   74.03         
         IKF     .2847       
         ISE   14.340000E-15 
          NE    1.307        
          BR    6.092        
          NR    1            
         ISS    0            
          RB   10            
          RE    0            
          RC    1            
         CJE   22.010000E-12 
         VJE     .75         
         MJE     .377        
         CJC    7.306000E-12 
         VJC     .75         
         MJC     .3416       
        XCJC    1            
         CJS    0            
         VJS     .75         
          TF  411.100000E-12 
         XTF    3            
         VTF    1.7          
         ITF     .6          
          TR   46.910000E-09 
         XTB    1.5          
          KF    0            
          AF    1            
          CN    2.42         
           D     .87         


**** 10/11/17 16:12:59 ******* PSpice Lite (March 2016) ******* ID# 10813 ****

 *differential amplifier


 ****     SMALL SIGNAL BIAS SOLUTION       TEMPERATURE =   27.000 DEG C


******************************************************************************



 NODE   VOLTAGE     NODE   VOLTAGE     NODE   VOLTAGE     NODE   VOLTAGE


(    1)    0.0000  (    2)    -.6275  (    3)    0.0000  (    4)    4.4789      

(    5)    4.4789  (    6)    5.0000  (    7)    0.0000  (    8)   -4.3541      

(    9)   -5.0000  (   10)    0.0000  




    VOLTAGE SOURCE CURRENTS
    NAME         CURRENT

    vcc         -1.042E-03
    vee         -2.062E-03
    Vcm         -7.147E-06
    vd           0.000E+00

    TOTAL POWER DISSIPATION   1.55E-02  WATTS



          JOB CONCLUDED

**** 10/11/17 16:12:59 ******* PSpice Lite (March 2016) ******* ID# 10813 ****

 *differential amplifier


 ****     JOB STATISTICS SUMMARY


******************************************************************************



  Total job time (using Solver 1)   =         .08
